Version 4
SHEET 1 880 680
WIRE 368 64 208 64
WIRE 480 80 432 80
WIRE -112 96 -112 80
WIRE 368 96 336 96
WIRE -432 112 -432 96
WIRE -432 112 -464 112
WIRE -432 128 -432 112
WIRE -112 208 -112 176
WIRE 336 224 336 96
WIRE 368 224 336 224
WIRE 480 224 480 80
WIRE 480 224 448 224
WIRE 336 256 336 224
WIRE -112 304 -112 288
WIRE 336 352 336 336
FLAG -432 16 Vdd
FLAG -464 112 0
FLAG -432 208 Vss
FLAG 384 112 Vdd
FLAG 384 48 Vss
FLAG 336 352 0
FLAG -112 304 0
FLAG 208 64 Vin
FLAG -112 80 Vin
SYMBOL voltage -432 0 R0
WINDOW 123 0 0 Left 0
WINDOW 39 0 0 Left 0
SYMATTR InstName V1
SYMATTR Value 2.5
SYMBOL voltage -432 112 R0
WINDOW 123 0 0 Left 0
WINDOW 39 0 0 Left 0
SYMATTR InstName V2
SYMATTR Value 2.5
SYMBOL res 320 240 R0
SYMATTR InstName R1
SYMATTR Value 30
SYMBOL res 464 208 R90
WINDOW 0 0 56 VBottom 2
WINDOW 3 32 56 VTop 2
SYMATTR InstName R2
SYMATTR Value 250
SYMBOL voltage -112 80 R0
WINDOW 3 24 96 Invisible 2
WINDOW 123 24 44 Left 2
WINDOW 39 0 0 Left 0
SYMATTR Value SINE(0 10m 1k)
SYMATTR Value2 AC 1
SYMATTR InstName V3
SYMBOL voltage -112 192 R0
WINDOW 123 0 0 Left 0
WINDOW 39 24 124 Left 2
SYMATTR InstName V4
SYMATTR Value 1
SYMBOL OpAmps\\ADA4895 400 80 M180
SYMATTR InstName U1
TEXT -480 456 Left 2 !.tran 10m
TEXT -480 480 Left 2 !;ac dec 10 1 500k
TEXT -480 504 Left 2 !;noise V(Vout) V3 dec 10 1 500k
TEXT -96 456 Left 2 !.lib TL972.lib
