Version 4
SHEET 1 1096 680
WIRE 832 -64 656 -64
WIRE 992 -64 896 -64
WIRE 128 48 96 48
WIRE 256 48 192 48
WIRE 544 48 368 48
WIRE 656 48 656 -64
WIRE 656 48 624 48
WIRE 688 48 656 48
WIRE 800 48 768 48
WIRE 896 48 800 48
WIRE 368 64 368 48
WIRE 368 64 320 64
WIRE 992 64 992 -64
WIRE 992 64 960 64
WIRE 1024 64 992 64
WIRE -224 80 -224 64
WIRE 256 80 224 80
WIRE 800 80 800 48
WIRE 896 80 864 80
WIRE -544 96 -544 80
WIRE -544 96 -576 96
WIRE -544 112 -544 96
WIRE 800 160 800 144
WIRE 864 176 864 80
WIRE 992 176 992 64
WIRE 992 176 864 176
WIRE -224 192 -224 160
WIRE 224 208 224 80
WIRE 256 208 224 208
WIRE 368 208 368 64
WIRE 368 208 336 208
WIRE 224 240 224 208
WIRE -224 288 -224 272
WIRE 224 336 224 320
FLAG -544 0 Vdd
FLAG -576 96 0
FLAG -544 192 Vss
FLAG 272 96 Vdd
FLAG 272 32 Vss
FLAG 224 336 0
FLAG -224 288 0
FLAG 96 48 Vin
FLAG -224 64 Vin
FLAG 928 96 Vdd
FLAG 928 32 Vss
FLAG 800 160 0
FLAG 1024 64 Vout
SYMBOL voltage -544 -16 R0
WINDOW 123 0 0 Left 0
WINDOW 39 0 0 Left 0
SYMATTR InstName V1
SYMATTR Value 2.5
SYMBOL voltage -544 96 R0
WINDOW 123 0 0 Left 0
WINDOW 39 0 0 Left 0
SYMATTR InstName V2
SYMATTR Value 2.5
SYMBOL res 208 224 R0
SYMATTR InstName R1
SYMATTR Value 1k
SYMBOL res 352 192 R90
WINDOW 0 0 56 VBottom 2
WINDOW 3 32 56 VTop 2
SYMATTR InstName R2
SYMATTR Value 5k
SYMBOL voltage -224 64 R0
WINDOW 3 24 96 Invisible 2
WINDOW 123 24 44 Left 2
WINDOW 39 0 0 Left 0
SYMATTR Value SINE(0 10m 1k)
SYMATTR Value2 AC 1
SYMATTR InstName V3
SYMBOL voltage -224 176 R0
WINDOW 123 0 0 Left 0
WINDOW 39 24 124 Left 2
SYMATTR InstName V4
SYMATTR Value 1
SYMBOL cap 192 32 R90
WINDOW 0 0 32 VBottom 2
WINDOW 3 32 32 VTop 2
SYMATTR InstName C1
SYMATTR Value 1µ
SYMBOL cap 784 80 R0
SYMATTR InstName C2
SYMATTR Value 3.3n
SYMBOL res 784 32 R90
WINDOW 0 0 56 VBottom 2
WINDOW 3 32 56 VTop 2
SYMATTR InstName R3
SYMATTR Value 2.1k
SYMBOL res 640 32 R90
WINDOW 0 0 56 VBottom 2
WINDOW 3 32 56 VTop 2
SYMATTR InstName R4
SYMATTR Value 1k
SYMBOL cap 896 -80 R90
WINDOW 0 0 32 VBottom 2
WINDOW 3 32 32 VTop 2
SYMATTR InstName C3
SYMATTR Value 7.5n
SYMBOL OpAmps\\opamp2 928 128 M180
SYMATTR InstName U2
SYMATTR Value TL972
SYMBOL OpAmps\\ADA4895 288 64 M180
SYMATTR InstName U1
TEXT -592 440 Left 2 !.tran 10m
TEXT -592 464 Left 2 !;ac dec 10 1 500k
TEXT -584 -96 Left 2 ;Zwei Stufen, Ein Vorverstärker und Ein Tiefpassfilter
TEXT -592 488 Left 2 !;noise V(Vout) V3 dec 10 1 500k
TEXT -208 440 Left 2 !.lib TL972.lib
